REMARK  7 active torsions:
REMARK  status: ('A' for Active; 'I' for Inactive)
REMARK    1  A    between atoms: C5_3  and  C4_27 
REMARK    2  A    between atoms: C7_4  and  C8_29 
REMARK    3  A    between atoms: C18_11  and  O_20 
REMARK       I    between atoms: C_14  and  N2_15 
REMARK       I    between atoms: C_14  and  N_25 
REMARK    4  A    between atoms: N2_15  and  C14_17 
REMARK    5  A    between atoms: C17_19  and  O_20 
REMARK    6  A    between atoms: N_25  and  C1_26 
REMARK    7  A    between atoms: N_25  and  C4_27 
ROOT
HETATM    1  O1  31W A 801      33.924 -31.513  -7.388  1.00 45.60    -0.247 OA
HETATM    2  C   31W A 801      33.869 -32.517  -8.085  1.00 45.04     0.323 C 
HETATM    3  N2  31W A 801      34.916 -32.931  -8.854  1.00 43.47    -0.309 N 
HETATM    4  H2  31W A 801      34.767 -33.753  -9.440  1.00  0.00     0.170 HD
HETATM    5  N   31W A 801      32.710 -33.302  -8.119  1.00 46.44    -0.325 N 
ENDROOT
BRANCH   5   6
HETATM    6  C1  31W A 801      32.666 -34.429  -9.083  1.00 49.57     0.089 A 
HETATM    7  C2  31W A 801      31.422 -34.656  -9.874  1.00 48.66     0.028 A 
HETATM    8  C3  31W A 801      31.812 -35.616  -8.792  1.00 50.08     0.028 A 
ENDBRANCH   5   6
BRANCH   5   9
HETATM    9  C4  31W A 801      31.585 -32.956  -7.241  1.00 44.88     0.165 C 
BRANCH   9  10
HETATM   10  C5  31W A 801      31.545 -33.688  -5.917  1.00 43.83    -0.039 A 
HETATM   11  C13 31W A 801      32.681 -34.284  -5.379  1.00 43.15     0.009 A 
HETATM   12  C12 31W A 801      32.663 -34.823  -4.101  1.00 42.93     0.001 A 
HETATM   13  C11 31W A 801      31.503 -34.779  -3.345  1.00 44.36     0.014 A 
HETATM   14  C7  31W A 801      30.342 -34.218  -3.878  1.00 43.93    -0.002 A 
HETATM   15  C6  31W A 801      30.371 -33.684  -5.165  1.00 43.81     0.022 A 
BRANCH  14  16
HETATM   16  C8  31W A 801      29.090 -34.185  -3.098  1.00 44.34     0.084 A 
HETATM   17  S   31W A 801      27.620 -33.572  -3.779  1.00 46.16    -0.082 SA
HETATM   18  C10 31W A 801      26.832 -33.882  -2.303  1.00 44.08     0.069 A 
HETATM   19  C9  31W A 801      27.692 -34.409  -1.421  1.00 43.00     0.096 A 
HETATM   20  N1  31W A 801      28.984 -34.588  -1.863  1.00 43.78    -0.359 N 
HETATM   21  H1  31W A 801      29.745 -34.978  -1.307  1.00  0.00     0.166 HD
ENDBRANCH  14  16
ENDBRANCH   9  10
ENDBRANCH   5   9
BRANCH   3  22
HETATM   22  C14 31W A 801      36.197 -32.318  -8.911  1.00 42.35     0.036 A 
HETATM   23  C15 31W A 801      36.915 -32.135  -7.733  1.00 42.12     0.033 A 
HETATM   24  C16 31W A 801      38.130 -31.470  -7.744  1.00 42.95     0.039 A 
HETATM   25  C17 31W A 801      38.639 -30.983  -8.938  1.00 44.91     0.078 A 
HETATM   26  C19 31W A 801      37.943 -31.184 -10.126  1.00 45.57     0.039 A 
HETATM   27  C20 31W A 801      36.729 -31.853 -10.110  1.00 44.61     0.033 A 
BRANCH  25  28
HETATM   28  O   31W A 801      39.863 -30.280  -8.880  1.00 43.97    -0.255 OA
BRANCH  28  29
HETATM   29  C18 31W A 801      39.826 -28.936  -8.845  1.00 44.95     0.530 C 
HETATM   30  F2  31W A 801      39.355 -28.412  -9.959  1.00 44.30    -0.144 F 
HETATM   31  F1  31W A 801      39.092 -28.478  -7.845  1.00 46.68    -0.144 F 
HETATM   32  F   31W A 801      41.026 -28.422  -8.686  1.00 43.26    -0.144 F 
ENDBRANCH  28  29
ENDBRANCH  25  28
ENDBRANCH   3  22
TORSDOF 7
