REMARK  6 active torsions:
REMARK  status: ('A' for Active; 'I' for Inactive)
REMARK    1  A    between atoms: N6_6  and  C16_20 
REMARK    2  A    between atoms: C7_7  and  N3_35 
REMARK    3  A    between atoms: C7_7  and  C8_37 
REMARK    4  A    between atoms: C13_12  and  N5_23 
REMARK    5  A    between atoms: N5_23  and  C_25 
REMARK    6  A    between atoms: C6_33  and  N3_35 
ROOT
HETATM    1  C2  31Y A 801      30.091 -34.975  -2.605  1.00 33.23     0.064 A 
HETATM    2  C3  31Y A 801      28.405 -34.933  -1.069  1.00 33.94     0.182 A 
HETATM    3  C5  31Y A 801      31.822 -35.036  -4.275  1.00 31.47     0.050 A 
HETATM    4  C   31Y A 801      27.940 -33.963  -3.086  1.00 36.63     0.136 A 
HETATM    5  N1  31Y A 801      27.529 -34.287  -1.850  1.00 33.01    -0.337 N 
HETATM    6  H1  31Y A 801      26.593 -34.052  -1.521  1.00  0.00     0.168 HD
HETATM    7  N   31Y A 801      29.660 -35.292  -1.344  1.00 34.28    -0.350 N 
HETATM    8  HN  31Y A 801      30.255 -35.767  -0.665  1.00  0.00     0.166 HD
HETATM    9  C1  31Y A 801      29.260 -34.323  -3.533  1.00 32.66     0.105 A 
HETATM   10  N2  31Y A 801      29.690 -34.040  -4.794  1.00 31.91    -0.338 N 
HETATM   11  H2  31Y A 801      29.074 -33.572  -5.459  1.00  0.00     0.167 HD
HETATM   12  C6  31Y A 801      30.918 -34.381  -5.143  1.00 31.77     0.101 A 
HETATM   13  C4  31Y A 801      31.403 -35.319  -3.009  1.00 31.52     0.036 A 
ENDROOT
BRANCH   4  14
HETATM   14  N5  31Y A 801      27.170 -33.170  -3.878  1.00 41.95    -0.341 N 
HETATM   15  H5  31Y A 801      27.680 -32.787  -4.674  1.00  0.00     0.167 HD
BRANCH  14  16
HETATM   16  C13 31Y A 801      25.827 -32.764  -3.839  1.00 49.58     0.033 A 
HETATM   17  C18 31Y A 801      25.493 -31.667  -4.624  1.00 54.82     0.032 A 
HETATM   18  C17 31Y A 801      24.218 -31.133  -4.577  1.00 58.57     0.032 A 
HETATM   19  C16 31Y A 801      23.238 -31.701  -3.759  1.00 60.39     0.030 A 
HETATM   20  C15 31Y A 801      23.586 -32.792  -2.959  1.00 57.22     0.032 A 
HETATM   21  C14 31Y A 801      24.866 -33.315  -2.998  1.00 52.96     0.032 A 
BRANCH  19  22
HETATM   22  N6  31Y A 801      21.924 -31.230  -3.796  1.00 62.82    -0.377 N 
HETATM   23  C22 31Y A 801      21.204 -31.058  -5.062  1.00 64.34     0.149 C 
HETATM   24  C21 31Y A 801      20.413 -29.773  -5.015  1.00 66.09     0.186 C 
HETATM   25  O   31Y A 801      19.542 -29.737  -3.882  1.00 65.09    -0.388 OA
HETATM   26  C20 31Y A 801      20.284 -29.846  -2.663  1.00 64.52     0.186 C 
HETATM   27  C19 31Y A 801      21.079 -31.129  -2.603  1.00 63.24     0.149 C 
ENDBRANCH  19  22
ENDBRANCH  14  16
ENDBRANCH   4  14
BRANCH  12  28
HETATM   28  N3  31Y A 801      31.291 -34.058  -6.414  1.00 32.47    -0.372 N 
HETATM   29  H3  31Y A 801      32.226 -34.315  -6.729  1.00  0.00     0.161 HD
BRANCH  28  30
HETATM   30  C7  31Y A 801      30.410 -33.361  -7.341  1.00 33.76     0.161 C 
BRANCH  30  31
HETATM   31  C8  31Y A 801      30.149 -31.919  -6.963  1.00 31.42    -0.025 A 
HETATM   32  C9  31Y A 801      31.188 -31.018  -6.801  1.00 32.39     0.096 A 
HETATM   33  N4  31Y A 801      31.024 -29.735  -6.434  1.00 35.01    -0.375 N 
HETATM   34  C10 31Y A 801      29.771 -29.311  -6.216  1.00 32.88     0.088 A 
HETATM   35  H4  31Y A 801      31.822 -29.109  -6.326  1.00  0.00     0.164 HD
HETATM   36  C11 31Y A 801      28.665 -30.128  -6.353  1.00 31.18     0.017 A 
HETATM   37  C12 31Y A 801      28.863 -31.447  -6.732  1.00 31.75     0.011 A 
ENDBRANCH  30  31
ENDBRANCH  28  30
ENDBRANCH  12  28
TORSDOF 6
