REMARK  8 active torsions:
REMARK  status: ('A' for Active; 'I' for Inactive)
REMARK    1  A    between atoms: N4_3  and  C16_23 
REMARK    2  A    between atoms: N6_5  and  C1_37 
REMARK       I    between atoms: C9_7  and  N3_18 
REMARK    3  A    between atoms: C9_7  and  C8_26 
REMARK    4  A    between atoms: C10_8  and  N3_18 
REMARK    5  A    between atoms: C11_9  and  C13_11 
REMARK    6  A    between atoms: C8_26  and  N_27 
REMARK    7  A    between atoms: C6_32  and  C4_33 
REMARK    8  A    between atoms: C_34  and  O1_35 
ROOT
HETATM    1  C7  31V A 801      33.714 -34.210  -8.746  1.00 23.80     0.143 A 
HETATM    2  N   31V A 801      33.842 -33.930 -10.051  1.00 24.50    -0.278 N 
HETATM    3  N1  31V A 801      32.644 -33.689 -10.611  1.00 24.31    -0.240 N 
HETATM    4  H1  31V A 801      32.465 -33.461 -11.589  1.00  0.00     0.208 HD
HETATM    5  N2  31V A 801      31.747 -33.803  -9.657  1.00 21.00    -0.284 N 
HETATM    6  H2  31V A 801      30.742 -33.676  -9.772  1.00  0.00     0.188 HD
HETATM    7  C6  31V A 801      32.376 -34.119  -8.489  1.00 21.08     0.076 A 
ENDROOT
BRANCH   2   8
HETATM    8  C8  31V A 801      35.057 -33.806 -10.836  1.00 23.59     0.253 C 
BRANCH   8   9
HETATM    9  C9  31V A 801      35.982 -32.756 -10.242  1.00 26.22     0.243 C 
HETATM   10  O   31V A 801      35.734 -32.157  -9.194  1.00 23.21    -0.271 OA
HETATM   11  N3  31V A 801      37.036 -32.423 -11.038  1.00 24.67    -0.310 N 
HETATM   12  H3  31V A 801      37.079 -32.873 -11.953  1.00  0.00     0.170 HD
BRANCH  11  13
HETATM   13  C10 31V A 801      38.048 -31.542 -10.734  1.00 25.48     0.132 A 
HETATM   14  N4  31V A 801      38.778 -30.921 -11.703  1.00 27.86    -0.240 N 
HETATM   15  N5  31V A 801      39.659 -30.008 -11.147  1.00 25.07    -0.296 N 
HETATM   16  C11 31V A 801      39.435 -30.093  -9.839  1.00 25.02     0.034 A 
HETATM   17  H5  31V A 801      40.327 -29.408 -11.630  1.00  0.00     0.187 HD
HETATM   18  C12 31V A 801      38.438 -31.021  -9.540  1.00 25.13     0.077 A 
BRANCH  14  19
HETATM   19  C16 31V A 801      38.718 -31.052 -13.125  1.00 33.95     0.058 A 
HETATM   20  C21 31V A 801      39.886 -30.957 -13.884  1.00 39.59     0.032 A 
HETATM   21  C20 31V A 801      39.826 -31.120 -15.259  1.00 38.42     0.002 A 
HETATM   22  C19 31V A 801      38.617 -31.379 -15.882  1.00 38.05     0.000 A 
HETATM   23  C18 31V A 801      37.454 -31.466 -15.131  1.00 37.62     0.002 A 
HETATM   24  C17 31V A 801      37.496 -31.298 -13.755  1.00 34.29     0.032 A 
ENDBRANCH  14  19
BRANCH  16  25
HETATM   25  C13 31V A 801      40.149 -29.331  -8.779  1.00 26.47     0.037 A 
HETATM   26  C15 31V A 801      39.988 -27.841  -8.699  1.00 27.74     0.012 A 
HETATM   27  C14 31V A 801      41.282 -28.411  -9.129  1.00 27.12     0.012 A 
ENDBRANCH  16  25
ENDBRANCH  11  13
ENDBRANCH   8   9
ENDBRANCH   2   8
BRANCH   7  28
HETATM   28  C4  31V A 801      31.664 -34.256  -7.210  1.00 24.18    -0.004 A 
HETATM   29  C3  31V A 801      32.182 -35.071  -6.206  1.00 24.53     0.017 A 
HETATM   30  C2  31V A 801      31.548 -35.182  -4.984  1.00 24.30     0.034 A 
HETATM   31  C1  31V A 801      30.374 -34.471  -4.761  1.00 23.78     0.073 A 
HETATM   32  C   31V A 801      29.849 -33.632  -5.759  1.00 22.60     0.096 A 
HETATM   33  C5  31V A 801      30.494 -33.534  -6.980  1.00 24.41     0.053 A 
BRANCH  31  34
HETATM   34  N6  31V A 801      29.717 -34.609  -3.487  1.00 23.74    -0.314 N 
HETATM   35  C22 31V A 801      30.305 -34.918  -2.301  1.00 20.89     0.188 A 
HETATM   36  N7  31V A 801      29.437 -35.044  -1.331  1.00 23.74    -0.354 N 
HETATM   37  C23 31V A 801      28.198 -34.797  -1.920  1.00 25.03     0.022 A 
HETATM   38  H7  31V A 801      29.626 -35.273  -0.355  1.00  0.00     0.166 HD
HETATM   39  C24 31V A 801      28.357 -34.525  -3.244  1.00 24.05     0.122 A 
HETATM   40  C25 31V A 801      26.940 -34.856  -1.113  1.00 24.38     0.069 C 
ENDBRANCH  31  34
BRANCH  32  41
HETATM   41  O1  31V A 801      28.729 -32.919  -5.424  1.00 23.77    -0.354 OA
HETATM   42  C26 31V A 801      28.285 -31.894  -6.319  1.00 23.61     0.208 C 
ENDBRANCH  32  41
ENDBRANCH   7  28
TORSDOF 8
