REMARK  5 active torsions:
REMARK  status: ('A' for Active; 'I' for Inactive)
REMARK    1  A    between atoms: C2_1  and  C3_2 
REMARK    2  A    between atoms: C9_5  and  C10_6 
REMARK    3  A    between atoms: C13_9  and  C14_33 
REMARK    4  A    between atoms: N_18  and  C_19 
REMARK    5  A    between atoms: C_19  and  C1_20 
ROOT
HETATM    1  C9  31X A 801      30.763 -34.468  -9.323  1.00 32.26     0.113 A 
HETATM    2  C11 31X A 801      29.936 -34.185  -8.281  1.00 29.66     0.052 A 
HETATM    3  C12 31X A 801      30.624 -34.439  -7.039  1.00 29.76     0.021 A 
HETATM    4  C13 31X A 801      30.368 -34.344  -5.635  1.00 26.96     0.056 A 
HETATM    5  C26 31X A 801      31.901 -34.904  -7.422  1.00 28.61     0.049 A 
HETATM    6  N   31X A 801      31.967 -34.949  -8.817  1.00 34.60    -0.333 N 
HETATM    7  C25 31X A 801      32.863 -35.232  -6.474  1.00 24.57     0.048 A 
HETATM    8  C24 31X A 801      32.503 -35.100  -5.142  1.00 26.26     0.091 A 
HETATM    9  N3  31X A 801      31.298 -34.673  -4.718  1.00 26.90    -0.364 N 
HETATM   10  H3  31X A 801      31.094 -34.600  -3.721  1.00  0.00     0.165 HD
ENDROOT
BRANCH   6  11
HETATM   11  C   31X A 801      33.071 -35.523  -9.577  1.00 40.14     0.207 C 
BRANCH  11  12
HETATM   12  C1  31X A 801      34.196 -34.546  -9.771  1.00 45.40     0.122 A 
HETATM   13  N2  31X A 801      35.076 -34.229  -8.775  1.00 48.65    -0.321 N 
HETATM   14  C2  31X A 801      35.841 -33.344  -9.330  1.00 48.52     0.182 A 
HETATM   15  H2  31X A 801      35.120 -34.599  -7.826  1.00  0.00     0.169 HD
HETATM   16  O   31X A 801      35.505 -33.081 -10.603  1.00 50.10    -0.217 OA
HETATM   17  N1  31X A 801      34.387 -33.914 -10.888  1.00 47.18    -0.245 N 
HETATM   18  H1  31X A 801      33.863 -33.995 -11.759  1.00  0.00     0.196 HD
BRANCH  14  19
HETATM   19  C3  31X A 801      37.047 -32.714  -8.772  1.00 44.32     0.017 A 
HETATM   20  C8  31X A 801      37.713 -31.705  -9.472  1.00 42.09     0.016 A 
HETATM   21  C7  31X A 801      38.877 -31.149  -8.965  1.00 41.88     0.001 A 
HETATM   22  C6  31X A 801      39.389 -31.582  -7.752  1.00 42.68     0.000 A 
HETATM   23  C5  31X A 801      38.727 -32.569  -7.041  1.00 42.15     0.001 A 
HETATM   24  C4  31X A 801      37.562 -33.130  -7.541  1.00 42.72     0.016 A 
ENDBRANCH  14  19
ENDBRANCH  11  12
ENDBRANCH   6  11
BRANCH   1  25
HETATM   25  C10 31X A 801      30.520 -34.206 -10.777  1.00 36.56     0.227 C 
HETATM   26  O2  31X A 801      29.333 -33.980 -11.121  1.00 40.53    -0.643 OA
HETATM   27  O1  31X A 801      31.511 -34.173 -11.542  1.00 36.68    -0.643 OA
ENDBRANCH   1  25
BRANCH   4  28
HETATM   28  C14 31X A 801      29.052 -33.950  -5.065  1.00 24.26     0.003 A 
HETATM   29  C15 31X A 801      28.348 -32.753  -5.465  1.00 27.00    -0.013 A 
HETATM   30  C20 31X A 801      28.881 -31.785  -6.368  1.00 26.47     0.013 A 
HETATM   31  C16 31X A 801      27.047 -32.502  -4.918  1.00 28.63    -0.025 A 
HETATM   32  C19 31X A 801      28.172 -30.666  -6.714  1.00 26.79     0.001 A 
HETATM   33  C18 31X A 801      26.912 -30.432  -6.180  1.00 27.62     0.001 A 
HETATM   34  C17 31X A 801      26.354 -31.320  -5.300  1.00 28.00     0.012 A 
HETATM   35  C21 31X A 801      26.501 -33.427  -3.989  1.00 27.08     0.012 A 
HETATM   36  C22 31X A 801      27.203 -34.535  -3.619  1.00 25.23     0.002 A 
HETATM   37  C23 31X A 801      28.458 -34.794  -4.150  1.00 22.53     0.014 A 
ENDBRANCH   4  28
TORSDOF 5
